VERS 210524 5 36398 36398
MODE SEQ
NAME Ø1" ZnSe Aspheric Lens, f=12.7 mm, NA=0.67, ARC: 2-5 µm
AUTH 
NOTE 0 FOR INFORMATION ONLY, NOT FOR MANUFACTURING.  ALL VALUES AND COATING(S) ARE TYPICAL AND THEORETICAL, ACTUAL PERFORMANCE MAY VARY.  FOR FURTHER INFORMATION CONTACT CUSTOMER SERVICE AT TECHSUPPORT@THORL
NOTE 0 ABS.COM
PFIL 0 0 0
LANG 0
UNIT MM X W X CM MR CPMM
ENPD 22.859999999999999
ENVD 20 1 0
GFAC 0 0
GCAT SCHOTT INFRARED 
RAIM 0 0 1 1 0 0 0 0 0 1
PUSH 0 0 0 0 0 0
SDMA 0 1 0
OMMA 1 1
FTYP 0 0 1 1 0 0 0 1
ROPD 2
HYPR 0
PICB 1
XFLN 0
YFLN 0
FWGN 1
VDXN 0
VDYN 0
VCXN 0
VCYN 0
VANN 0
XAIM 0
YAIM 0
ZAIM 0
WAVM 1 4 1
WAVM 2 0.55000000000000004 1
WAVM 3 0.55000000000000004 1
WAVM 4 0.55000000000000004 1
WAVM 5 0.55000000000000004 1
WAVM 6 0.55000000000000004 1
WAVM 7 0.55000000000000004 1
WAVM 8 0.55000000000000004 1
WAVM 9 0.55000000000000004 1
WAVM 10 0.55000000000000004 1
WAVM 11 0.55000000000000004 1
WAVM 12 0.55000000000000004 1
WAVM 13 0.55000000000000004 1
WAVM 14 0.55000000000000004 1
WAVM 15 0.55000000000000004 1
WAVM 16 0.55000000000000004 1
WAVM 17 0.55000000000000004 1
WAVM 18 0.55000000000000004 1
WAVM 19 0.55000000000000004 1
WAVM 20 0.55000000000000004 1
WAVM 21 0.55000000000000004 1
WAVM 22 0.55000000000000004 1
WAVM 23 0.55000000000000004 1
WAVM 24 0.55000000000000004 1
PWAV 1
POLS 1 0 1 0 0 1 0
GLRS 1 0
GSTD 0 100.000 100.000 100.000 100.000 100.000 100.000 0 1 1 0 0 1 1 1 1 1 1
NSCD 100 500 0 0.001 10 9.9999999999999995e-07 0 0 0 0 0 0 1000000 0 2
COFN QF "COATINGTHOR.DAT" "SCATTER_PROFILE.DAT" "ABG_DATA.DAT" "PROFILE.GRD"
COFN COATINGTHOR.DAT SCATTER_PROFILE.DAT ABG_DATA.DAT PROFILE.GRD
LUID 3
SURF 0
  SSID 0
  TYPE STANDARD
  FIMP 

  CURV 0.0 0 0 0 0 ""
  HIDE 0 0 0 0 0 0 0 0 0 0
  MIRR 2 0
  SLAB 2
  DISZ INFINITY
  DIAM 0 0 0 0 1 ""
  MEMA 0 0 0 0 1 ""
  POPS 0 0 0 0 0 0 0 0 1 1 1 1 0 0 0 0
SURF 1
  SSID 1
  COMM AL72512-E1
  STOP
  TYPE EVENASPH
  FIMP 

  CURV 5.478851632697787077E-02 0 0 0 0 ""
  COAT THORE1ZNSE
  HIDE 0 0 0 0 0 0 0 0 0 0
  MIRR 2 0
  SLAB 3
  PARM 1 0
  PARM 2 -1.2305775e-05
  PARM 3 -9.0757117000000004e-09
  PARM 4 0
  PARM 5 0
  PARM 6 0
  PARM 7 0
  PARM 8 0
  DISZ 7
  GLAS ZNSE 0 0 0 0 0 0 0 0 0 0 
  CONI -0.98096059999999996
  DIAM 12.699999999999999 1 0 0 1 ""
  MEMA 12.699999999999999 0 0 0 1 ""
  POPS 0 0 0 0 0 0 0 0 1 1 1 1 0 0 0 0
  FLAP 0 12.699999999999999 0
SURF 2
  SSID 2
  COMM AL72512-E1
  TYPE STANDARD
  FIMP 

  CURV 0.0 0 0 0 0 ""
  COAT THORE1ZNSE
  HIDE 0 0 0 0 0 0 0 0 0 0
  MIRR 2 0
  SLAB 4
  DISZ 9.8819604655722646
  DIAM 12.699999999999999 1 0 0 1 ""
  MEMA 12.699999999999999 0 0 0 1 ""
  POPS 0 0 0 0 0 0 0 0 1 1 1 1 0 0 0 0
  FLAP 0 12.699999999999999 0
SURF 3
  SSID 3
  TYPE STANDARD
  FIMP 

  CURV 0.0 0 0 0 0 ""
  HIDE 0 0 0 0 0 0 0 0 0 0
  MIRR 2 0
  SLAB 1
  DISZ 0
  DIAM 1 1 0 0 1 ""
  MEMA 1 0 0 0 1 ""
  POPS 0 0 0 0 0 0 0 0 1 1 1 1 0 0 0 0
BLNK 
TOL TOFF   0   0 0.0000000000000000E+00 0.0000000000000000E+00   0 0 0 0 0
MNUM 1 1
MOFF   0   1 "" 0 0 0 1 1 0 0.0 "" 0
